Program Version,EnergyPlus, Version 9.5.0-de239b2e5f, YMD=2025.06.22 20:22
